Circuit: * C:\Projects\LC-Meter\M181\LCR_Meter_Proto_M181-STM32Cube\my_github\LCR_Meter_Proto_M181\LTspice\opamp.asc

Ignoring empty pin current: Ix(u1:1)
Ignoring empty pin current: Ix(u1:2)
Ignoring empty pin current: Ix(u2:1)
Ignoring empty pin current: Ix(u2:2)

Date: Mon Jul 07 11:46:19 2025
Total elapsed time: 0.024 seconds.

tnom = 27
temp = 27
method = trap
totiter = 0
traniter = 0
tranpoints = 0
accept = 0
rejected = 0
matrix size = 10
fillins = 2
solver = Normal

